/*--------------------------------*- C++ -*----------------------------------*\
| =========                 |                                                 |
| \\      /  F ield         | OpenFOAM: The Open Source CFD Toolbox           |
|  \\    /   O peration     | Version:  2406                                  |
|   \\  /    A nd           | Website:  www.openfoam.com                      |
|    \\/     M anipulation  |                                                 |
\*---------------------------------------------------------------------------*/
FoamFile
{
    version     2.0;
    format      ascii;
    arch        "LSB;label=32;scalar=64";
    class       extendedFeatureEdgeMesh;
    location    "constant/extendedFeatureEdgeMesh";
    object      geometry.extendedFeatureEdgeMesh;
}
// * * * * * * * * * * * * * * * * * * * * * * * * * * * * * * * * * * * * * //

// points

79
(
(74363.6 36201 -3.06162e-13)
(71182.2 36023.9 2497)
(71323.9 36016.3 0)
(71323.9 63983.7 0)
(74363.6 63799 -3.06162e-13)
(71182.2 63976.1 2497)
(77954.1 48397.6 -6.12323e-13)
(78000 50000 -6.12323e-13)
(73864.1 36124.7 1349.08)
(74142.8 36165 916.458)
(73473.4 36077.8 1743.65)
(73033.6 36038.2 2047.34)
(75113.4 37617.9 -6.12323e-13)
(74308.1 36191.6 465.019)
(71980.3 36000 2436.44)
(72527.5 36009.9 2283.29)
(71584.5 36006.2 2489.95)
(72042.8 37425 2497)
(75780.8 39075.3 -6.12323e-13)
(76363.8 40568.6 -6.12323e-13)
(72810.9 38878.8 2497)
(76860.3 42092.8 -6.12323e-13)
(73483.2 40379.4 2497)
(77268.8 43642.9 -6.12323e-13)
(74056.9 41920.3 2497)
(77587.9 45213.9 -6.12323e-13)
(74529.6 43495.2 2497)
(77816.6 46800.5 -6.12323e-13)
(74899.4 45097.3 2497)
(75164.6 46720.1 2497)
(75324.2 48356.6 2497)
(75377.5 50000 2497)
(72340.7 36004.1 0)
(72180.7 37419.7 0)
(73355.8 36065.8 0)
(72945.4 38875.3 0)
(73614.6 40377.2 0)
(74185.7 41919.1 0)
(74656.2 43494.6 0)
(75024.2 45097.1 0)
(75288.2 46720 0)
(75447 48356.6 0)
(75500 50000 -2.88942e-11)
(75447 51643.4 0)
(77954.1 51602.4 -6.12323e-13)
(75288.2 53280 0)
(77816.6 53199.5 -6.12323e-13)
(75024.2 54902.9 0)
(77587.9 54786.1 -6.12323e-13)
(74656.2 56505.4 0)
(77268.8 56357.1 -6.12323e-13)
(76860.3 57907.2 -6.12323e-13)
(74185.7 58080.9 0)
(76363.8 59431.4 -6.12323e-13)
(73614.6 59622.8 0)
(72180.7 62580.3 0)
(72340.7 63995.9 0)
(75780.8 60924.7 -6.12323e-13)
(72945.4 61124.7 0)
(73355.8 63934.2 0)
(75113.4 62382.1 -6.12323e-13)
(71288.5 36018.1 1248.26)
(75324.2 51643.4 2497)
(75164.6 53279.9 2497)
(74899.4 54902.7 2497)
(74529.6 56504.8 2497)
(74056.9 58079.7 2497)
(73483.2 59620.6 2497)
(74308.1 63808.4 465.019)
(72810.9 61121.2 2497)
(74142.8 63835 916.458)
(73864.1 63875.3 1349.08)
(73473.4 63922.2 1743.65)
(73033.6 63961.8 2047.34)
(72527.5 63990.1 2283.29)
(72042.8 62575 2497)
(71980.3 64000 2436.44)
(71584.5 63993.8 2489.95)
(71288.5 63981.9 1248.26)
)

// edges

82
(
(6 7)
(8 9)
(10 8)
(11 10)
(0 12)
(13 0)
(14 15)
(16 14)
(1 16)
(15 11)
(9 13)
(17 1)
(12 18)
(18 19)
(20 17)
(19 21)
(22 20)
(21 23)
(24 22)
(23 25)
(26 24)
(25 27)
(28 26)
(27 6)
(29 28)
(30 29)
(31 30)
(32 2)
(2 33)
(34 32)
(33 35)
(0 34)
(35 36)
(36 37)
(37 38)
(38 39)
(39 40)
(40 41)
(41 42)
(42 43)
(44 7)
(43 45)
(46 44)
(45 47)
(48 46)
(47 49)
(50 48)
(51 50)
(49 52)
(53 51)
(52 54)
(55 3)
(3 56)
(57 53)
(54 58)
(56 59)
(60 57)
(58 55)
(4 60)
(59 4)
(61 2)
(1 61)
(62 31)
(63 62)
(64 63)
(65 64)
(66 65)
(67 66)
(4 68)
(69 67)
(68 70)
(70 71)
(71 72)
(72 73)
(73 74)
(75 69)
(74 76)
(5 75)
(76 77)
(77 5)
(5 78)
(78 3)
)

// concaveStart mixedStart nonFeatureStart
6 6 6
// internalStart flatStart openStart multipleStart
82 82 82 82
// normals

154
(
(0.994476 -0.028481 0.101021)
(1.13128e-14 -3.23989e-16 -1)
(0.771116 -0.445104 0.455261)
(0.13278 -0.991122 -0.00679533)
(0.676014 -0.394153 0.622614)
(0.118042 -0.993008 -0.00115898)
(0.555843 -0.333306 0.761542)
(0.0900566 -0.995936 0.000749202)
(0.880022 -0.465665 0.0933724)
(-2.95776e-16 -5.95697e-17 -1)
(0.879541 -0.466131 0.0955453)
(0.132919 -0.991118 -0.00415311)
(0.268459 -0.168844 0.948378)
(0.0119377 -0.999683 -0.022161)
(0.132231 -0.0849761 0.98757)
(-0.0163351 -0.99985 -0.00570144)
(0.0170177 -0.0109362 0.999795)
(-0.0440236 -0.99903 0.000908995)
(0.420256 -0.255078 0.870816)
(0.0548639 -0.998492 -0.00195571)
(0.846501 -0.450666 0.283438)
(0.135194 -0.990779 -0.00890559)
(0.0166914 -0.0102528 0.999808)
(-0.84907 0.521547 -0.084078)
(0.905223 -0.41455 0.0933759)
(-2.23162e-16 1.02198e-16 -1)
(0.928752 -0.36256 0.0772623)
(-2.28956e-16 8.93785e-17 -1)
(0.0178034 -0.00940566 0.999797)
(-0.881061 0.465471 -0.0840746)
(0.94839 -0.308953 0.0714473)
(-2.33889e-16 7.6193e-17 -1)
(0.0181314 -0.00812359 0.999803)
(-0.909359 0.407428 -0.0840751)
(0.964681 -0.254212 0.0690428)
(-2.37936e-16 6.27005e-17 -1)
(0.0184511 -0.00686982 0.999806)
(-0.933833 0.347689 -0.0840701)
(0.977579 -0.198577 0.0700418)
(-2.41075e-16 4.897e-17 -1)
(0.0187643 -0.00563258 0.999808)
(-0.954389 0.286484 -0.0840771)
(0.987024 -0.142269 0.0744484)
(-2.43292e-16 3.50679e-17 -1)
(0.0190742 -0.004402 0.999808)
(-0.970938 0.224076 -0.0840846)
(0.99294 -0.0854891 0.0822278)
(-2.44579e-16 2.10575e-17 -1)
(0.0193818 -0.00316793 0.999807)
(-0.98341 0.160737 -0.0840747)
(0.0196906 -0.00192005 0.999804)
(-0.991756 0.0967067 -0.0840763)
(0.0203243 -0.000658841 0.999793)
(-0.995936 0.0322847 -0.0840763)
(0 -0 -1)
(-0.0119886 -0.999928 0.0010618)
(-0.853388 0.521088 -0.0139889)
(0 0 -1)
(0.0606262 -0.998153 -0.00391153)
(-2.16481e-16 1.13717e-16 -1)
(-0.885202 0.464997 -0.0139734)
(-2.22961e-16 9.93535e-17 -1)
(-0.913328 0.406987 -0.0139563)
(-2.28629e-16 8.46769e-17 -1)
(-0.937658 0.347279 -0.0139524)
(-2.33469e-16 6.97236e-17 -1)
(-0.958091 0.286126 -0.0139348)
(-2.37472e-16 5.45319e-17 -1)
(-0.974538 0.223789 -0.0139213)
(-2.40627e-16 3.91368e-17 -1)
(-0.986934 0.16052 -0.0139271)
(-2.42926e-16 2.35736e-17 -1)
(-0.995228 0.0965772 -0.0139227)
(4.35071e-17 -1.75834e-14 -1)
(-0.999383 0.0322351 -0.013919)
(4.35071e-17 1.75834e-14 -1)
(-0.999383 -0.0322351 -0.013919)
(1.13128e-14 3.23989e-16 -1)
(0.995222 0.0285024 0.0933841)
(-2.42926e-16 -2.35736e-17 -1)
(-0.995228 -0.0965772 -0.0139227)
(-2.44579e-16 -2.10575e-17 -1)
(0.991961 0.0854048 0.0933754)
(-2.40627e-16 -3.91368e-17 -1)
(-0.986934 -0.16052 -0.0139271)
(-2.43292e-16 -3.50679e-17 -1)
(0.987024 0.142269 0.0744484)
(-2.37472e-16 -5.45319e-17 -1)
(-0.974538 -0.223789 -0.0139213)
(-2.41075e-16 -4.897e-17 -1)
(0.977579 0.198577 0.0700418)
(-2.37936e-16 -6.27005e-17 -1)
(0.964681 0.254212 0.0690428)
(-2.33469e-16 -6.97236e-17 -1)
(-0.958091 -0.286126 -0.0139348)
(-2.33889e-16 -7.6193e-17 -1)
(0.94839 0.308953 0.0714473)
(-2.28629e-16 -8.46769e-17 -1)
(-0.937658 -0.347279 -0.0139524)
(0 0 -1)
(-0.853388 -0.521088 -0.0139889)
(-0.0119886 0.999928 0.0010618)
(-2.28956e-16 -8.93785e-17 -1)
(0.928752 0.36256 0.0772623)
(-2.22961e-16 -9.93535e-17 -1)
(-0.913328 -0.406987 -0.0139563)
(-0 0 -1)
(0.0606262 0.998153 -0.00391153)
(-2.23162e-16 -1.02198e-16 -1)
(0.905795 0.414812 0.0864058)
(-2.16481e-16 -1.13717e-16 -1)
(-0.885202 -0.464997 -0.0139734)
(-2.95776e-16 5.95697e-17 -1)
(0.880021 0.465664 0.0933834)
(0.132919 0.991118 -0.00415311)
(-0.843836 0.536032 -0.0246866)
(-0.84171 0.534815 -0.0741419)
(0.0200037 0.000648447 0.9998)
(-0.995936 -0.0322847 -0.0840763)
(0.0196906 0.00192005 0.999804)
(-0.991756 -0.0967067 -0.0840763)
(0.0193818 0.00316793 0.999807)
(-0.98341 -0.160737 -0.0840747)
(0.0190742 0.004402 0.999808)
(-0.970938 -0.224076 -0.0840846)
(0.0187643 0.00563258 0.999808)
(-0.954389 -0.286484 -0.0840771)
(0.0184511 0.00686982 0.999806)
(-0.933833 -0.347689 -0.0840701)
(0.865992 0.491254 0.0934211)
(0.0181314 0.00812359 0.999803)
(-0.909359 -0.407428 -0.0840751)
(0.834708 0.475576 0.27765)
(0.135194 0.990779 -0.00890559)
(0.771916 0.442982 0.455974)
(0.13278 0.991122 -0.00679533)
(0.675398 0.396632 0.621708)
(0.118042 0.993008 -0.00115898)
(0.556266 0.330282 0.762549)
(0.0900566 0.995936 0.000749202)
(0.42008 0.257731 0.870119)
(0.0548639 0.998492 -0.00195571)
(0.0178533 0.009432 0.999796)
(-0.881061 -0.465471 -0.0840746)
(0.268517 0.16686 0.948713)
(0.0119377 0.999683 -0.022161)
(0.0166979 0.0102568 0.999808)
(-0.84907 -0.521547 -0.084078)
(0.132231 0.0849761 0.98757)
(-0.0163351 0.99985 -0.00570144)
(0.0170177 0.0109362 0.999795)
(-0.0440236 0.99903 0.000908995)
(-0.84171 -0.534815 -0.0741419)
(-0.843836 -0.536032 -0.0246866)
)

// normal volume types

154
(
0
0
0
0
0
0
0
0
0
0
0
0
0
0
0
0
0
0
0
0
0
0
0
0
0
0
0
0
0
0
0
0
0
0
0
0
0
0
0
0
0
0
0
0
0
0
0
0
0
0
0
0
0
0
0
0
0
0
0
0
0
0
0
0
0
0
0
0
0
0
0
0
0
0
0
0
0
0
0
0
0
0
0
0
0
0
0
0
0
0
0
0
0
0
0
0
0
0
0
0
0
0
0
0
0
0
0
0
0
0
0
0
0
0
0
0
0
0
0
0
0
0
0
0
0
0
0
0
0
0
0
0
0
0
0
0
0
0
0
0
0
0
0
0
0
0
0
0
0
0
0
0
0
0
)

// normalDirections

82
(
2(1 -1)
2(1 -1)
2(1 -1)
2(1 -1)
2(1 -1)
2(1 -1)
2(1 -1)
2(1 -1)
2(1 -1)
2(1 -1)
2(1 -1)
2(1 -1)
2(1 -1)
2(1 -1)
2(1 -1)
2(1 -1)
2(1 -1)
2(1 -1)
2(1 -1)
2(1 -1)
2(1 -1)
2(1 -1)
2(1 -1)
2(1 -1)
2(1 -1)
2(1 -1)
2(1 -1)
2(1 -1)
2(1 -1)
2(1 -1)
2(1 -1)
2(1 -1)
2(1 -1)
2(1 -1)
2(1 -1)
2(1 -1)
2(1 -1)
2(1 -1)
2(1 -1)
2(1 -1)
2(1 -1)
2(1 -1)
2(1 -1)
2(1 -1)
2(1 -1)
2(1 -1)
2(1 -1)
2(1 -1)
2(1 -1)
2(1 -1)
2(1 -1)
2(1 -1)
2(1 -1)
2(1 -1)
2(1 -1)
2(1 -1)
2(1 -1)
2(1 -1)
2(1 -1)
2(1 -1)
2(1 -1)
2(1 -1)
2(1 -1)
2(1 -1)
2(1 -1)
2(1 -1)
2(1 -1)
2(1 -1)
2(1 -1)
2(1 -1)
2(1 -1)
2(1 -1)
2(1 -1)
2(1 -1)
2(1 -1)
2(1 -1)
2(1 -1)
2(1 -1)
2(1 -1)
2(1 -1)
2(1 -1)
2(1 -1)
)

// edgeNormals

82
(
2(0 1)
2(2 3)
2(4 5)
2(6 7)
2(8 9)
2(10 11)
2(12 13)
2(14 15)
2(16 17)
2(18 19)
2(20 21)
2(22 23)
2(24 25)
2(26 27)
2(28 29)
2(30 31)
2(32 33)
2(34 35)
2(36 37)
2(38 39)
2(40 41)
2(42 43)
2(44 45)
2(46 47)
2(48 49)
2(50 51)
2(52 53)
2(54 55)
2(54 56)
2(57 58)
2(59 60)
2(9 11)
2(61 62)
2(63 64)
2(65 66)
2(67 68)
2(69 70)
2(71 72)
2(73 74)
2(75 76)
2(77 78)
2(79 80)
2(81 82)
2(83 84)
2(85 86)
2(87 88)
2(89 90)
2(91 92)
2(93 94)
2(95 96)
2(97 98)
2(99 100)
2(99 101)
2(102 103)
2(104 105)
2(106 107)
2(108 109)
2(110 111)
2(112 113)
2(112 114)
2(55 115)
2(17 116)
2(117 118)
2(119 120)
2(121 122)
2(123 124)
2(125 126)
2(127 128)
2(129 114)
2(130 131)
2(132 133)
2(134 135)
2(136 137)
2(138 139)
2(140 141)
2(142 143)
2(144 145)
2(146 147)
2(148 149)
2(150 151)
2(152 151)
2(153 101)
)

// featurePointNormals

6
(
4(8 9 10 11)
4(16 17 23 116)
4(54 55 56 115)
4(99 100 101 153)
4(112 113 114 129)
4(146 147 151 152)
)

// featurePointEdges

6
(
3(5 31 4)
3(11 61 8)
3(27 60 28)
3(51 81 52)
3(58 68 59)
3(79 80 77)
)

// regionEdges
0()


// ************************************************************************* //
