/*--------------------------------*- C++ -*----------------------------------*\
| =========                 |                                                 |
| \\      /  F ield         | OpenFOAM: The Open Source CFD Toolbox           |
|  \\    /   O peration     | Version:  2406                                  |
|   \\  /    A nd           | Website:  www.openfoam.com                      |
|    \\/     M anipulation  |                                                 |
\*---------------------------------------------------------------------------*/
FoamFile
{
    version     2.0;
    format      ascii;
    arch        "LSB;label=32;scalar=64";
    class       featureEdgeMesh;
    location    "constant/triSurface";
    object      geometry.eMesh;
}
// * * * * * * * * * * * * * * * * * * * * * * * * * * * * * * * * * * * * * //


// points:

79
(
(74363.6 36201 -3.06162e-13)
(71182.2 36023.9 2497)
(71323.9 36016.3 0)
(71323.9 63983.7 0)
(74363.6 63799 -3.06162e-13)
(71182.2 63976.1 2497)
(77954.1 48397.6 -6.12323e-13)
(78000 50000 -6.12323e-13)
(73864.1 36124.7 1349.08)
(74142.8 36165 916.458)
(73473.4 36077.8 1743.65)
(73033.6 36038.2 2047.34)
(75113.4 37617.9 -6.12323e-13)
(74308.1 36191.6 465.019)
(71980.3 36000 2436.44)
(72527.5 36009.9 2283.29)
(71584.5 36006.2 2489.95)
(72042.8 37425 2497)
(75780.8 39075.3 -6.12323e-13)
(76363.8 40568.6 -6.12323e-13)
(72810.9 38878.8 2497)
(76860.3 42092.8 -6.12323e-13)
(73483.2 40379.4 2497)
(77268.8 43642.9 -6.12323e-13)
(74056.9 41920.3 2497)
(77587.9 45213.9 -6.12323e-13)
(74529.6 43495.2 2497)
(77816.6 46800.5 -6.12323e-13)
(74899.4 45097.3 2497)
(75164.6 46720.1 2497)
(75324.2 48356.6 2497)
(75377.5 50000 2497)
(72340.7 36004.1 0)
(72180.7 37419.7 0)
(73355.8 36065.8 0)
(72945.4 38875.3 0)
(73614.6 40377.2 0)
(74185.7 41919.1 0)
(74656.2 43494.6 0)
(75024.2 45097.1 0)
(75288.2 46720 0)
(75447 48356.6 0)
(75500 50000 -2.88942e-11)
(75447 51643.4 0)
(77954.1 51602.4 -6.12323e-13)
(75288.2 53280 0)
(77816.6 53199.5 -6.12323e-13)
(75024.2 54902.9 0)
(77587.9 54786.1 -6.12323e-13)
(74656.2 56505.4 0)
(77268.8 56357.1 -6.12323e-13)
(76860.3 57907.2 -6.12323e-13)
(74185.7 58080.9 0)
(76363.8 59431.4 -6.12323e-13)
(73614.6 59622.8 0)
(72180.7 62580.3 0)
(72340.7 63995.9 0)
(75780.8 60924.7 -6.12323e-13)
(72945.4 61124.7 0)
(73355.8 63934.2 0)
(75113.4 62382.1 -6.12323e-13)
(71288.5 36018.1 1248.26)
(75324.2 51643.4 2497)
(75164.6 53279.9 2497)
(74899.4 54902.7 2497)
(74529.6 56504.8 2497)
(74056.9 58079.7 2497)
(73483.2 59620.6 2497)
(74308.1 63808.4 465.019)
(72810.9 61121.2 2497)
(74142.8 63835 916.458)
(73864.1 63875.3 1349.08)
(73473.4 63922.2 1743.65)
(73033.6 63961.8 2047.34)
(72527.5 63990.1 2283.29)
(72042.8 62575 2497)
(71980.3 64000 2436.44)
(71584.5 63993.8 2489.95)
(71288.5 63981.9 1248.26)
)


// edges:

82
(
(6 7)
(8 9)
(10 8)
(11 10)
(0 12)
(13 0)
(14 15)
(16 14)
(1 16)
(15 11)
(9 13)
(17 1)
(12 18)
(18 19)
(20 17)
(19 21)
(22 20)
(21 23)
(24 22)
(23 25)
(26 24)
(25 27)
(28 26)
(27 6)
(29 28)
(30 29)
(31 30)
(32 2)
(2 33)
(34 32)
(33 35)
(0 34)
(35 36)
(36 37)
(37 38)
(38 39)
(39 40)
(40 41)
(41 42)
(42 43)
(44 7)
(43 45)
(46 44)
(45 47)
(48 46)
(47 49)
(50 48)
(51 50)
(49 52)
(53 51)
(52 54)
(55 3)
(3 56)
(57 53)
(54 58)
(56 59)
(60 57)
(58 55)
(4 60)
(59 4)
(61 2)
(1 61)
(62 31)
(63 62)
(64 63)
(65 64)
(66 65)
(67 66)
(4 68)
(69 67)
(68 70)
(70 71)
(71 72)
(72 73)
(73 74)
(75 69)
(74 76)
(5 75)
(76 77)
(77 5)
(5 78)
(78 3)
)

// * * * * * * * * * * * * * * * * * * * * * * * * * * * * * * * * * * * * * //


// ************************************************************************* //
